   Input file: /Users/mneveu/eclipse-workspace/IcyDwarf/IcyDwarf/PHREEQC-3.1.2/io/Sol
  Output file: /Users/mneveu/eclipse-workspace/IcyDwarf/IcyDwarf/PHREEQC-3.1.2/io/Sol.out
Database file: /Users/mneveu/eclipse-workspace/IcyDwarf/IcyDwarf/PHREEQC-3.1.2/core10.dat

------------------
Reading data base.
------------------

	LLNL_AQUEOUS_MODEL_PARAMETERS
	SOLUTION_MASTER_SPECIES
	SOLUTION_SPECIES
	PHASES
------------------------------------
Reading input data for simulation 1.
------------------------------------

	TITLE IcyDwarf generated speciation input using core10.dat
	SOLUTION 1 Cometary fluid
		 pH 	 	7	 charge
		 temp 	 	100
		 pressure 	600
		 pe 	 	-7.76729
		 water 	10
		 units		mol/kgw
		 C		2.7754 #=5% mol/mol: 0.05/0.01801528
		 N		1.11 #2% mol/mol: 0.02/0.01801528
		 S		0.27754 #0.5% mol/mol: 0.005/0.01801528
		 Cl             14.667e-3 # 680 ppm by mass (CI content) - 160 ppm by mass (CM content) assuming alteration at W:R=1 in CIs = 520 mg/kgw = 520/35.453 = 14.667 mmol/kgw
	SELECTED_OUTPUT 1
		state 		false	
		solution 	false
		distance 	false
		time 		false
		step 		false
		ionic_strength	true
		percent_error	true
		totals 	C Cl N S C(-4)	C(4)	N(-3)	N(0)	S(-2)	S(6)
		molalities 	CH4	C2H6	C3H8	HCO3-	CO2	Cl-	NH4+	NH3	N2	H2S	HS-
		saturation_indices	CH4(g)	C2H6(g)	H2(g)	H2S(g)
	END
-----
TITLE
-----

 IcyDwarf generated speciation input using core10.dat

-------------------------------------------
Beginning of initial solution calculations.
-------------------------------------------

Initial solution 1.	Cometary fluid

-----------------------------Solution composition------------------------------

	Elements           Molality       Moles

	C                 2.775e+00   2.775e+01
	Cl                1.467e-02   1.467e-01
	N                 1.110e+00   1.110e+01
	S                 2.775e-01   2.775e+00

----------------------------Description of solution----------------------------

                                       pH  =   8.110      Charge balance
                                       pe  =  -7.767    
                          Density (g/cm³)  =   0.92892
                               Volume (L)  =  11.55569
                        Activity of water  =   0.929
                 Ionic strength (mol/kgw)  =   2.893e-01
                       Mass of water (kg)  =   1.000e+01
                 Total alkalinity (eq/kg)  =   1.095e+00
                       Total CO2 (mol/kg)  =   2.260e-13
                         Temperature (°C)  = 100.00
                           Pressure (atm)  = 600.00
                  Electrical balance (eq)  =   1.014e-11
 Percent error, 100*(Cat-|An|)/(Cat+|An|)  =   0.00
                               Iterations  =   9
                                  Total H  = 1.260570e+03
                                  Total O  = 5.552550e+02

----------------------------Distribution of species----------------------------

                                               Log       Log       Log    mole V
   Species          Molality    Activity  Molality  Activity     Gamma   cm³/mol

   OH-             1.710e-04   1.123e-04    -3.767    -3.950    -0.183     -6.92
   H+              9.956e-09   7.762e-09    -8.002    -8.110    -0.108      0.00
   H2O             5.553e+01   9.289e-01     1.744    -0.032     0.000     18.30
C(-2)         1.618e-19
   C2H4            8.088e-20   8.088e-20   -19.092   -19.092     0.000     47.40
C(-3)         4.695e-09
   C2H6            2.347e-09   2.347e-09    -8.629    -8.629     0.000     51.43
C(-4)         2.775e+00
   CH4             2.775e+00   2.775e+00     0.443     0.443     0.000     38.76
C(2)          5.568e-20
   CO              5.568e-20   5.568e-20   -19.254   -19.254     0.000     35.30
C(4)          2.260e-13
   HCOO-           1.025e-13   6.726e-14   -12.989   -13.172    -0.183     25.64
   HCO3-           9.882e-14   6.644e-14   -13.005   -13.178    -0.172     26.89
   CH3OH           1.408e-14   1.408e-14   -13.851   -13.851     0.000     37.38
   CO3-2           6.501e-15   1.320e-15   -14.187   -14.879    -0.692     -3.42
   CH3COO-         8.911e-16   6.121e-16   -15.050   -15.213    -0.163     38.90
   CO2             7.321e-16   7.876e-16   -15.135   -15.104     0.032     34.67
   NH4CH3COO       3.419e-16   3.419e-16   -15.466   -15.466     0.000     69.31
   C3H8            2.558e-16   2.558e-16   -15.592   -15.592     0.000     65.43
   CO(NH2)2        1.054e-16   1.054e-16   -15.977   -15.977     0.000     43.36
   HCOOH           3.437e-18   3.437e-18   -17.464   -17.464     0.000     36.21
   CH3CH2OH        3.823e-19   3.823e-19   -18.418   -18.418     0.000     53.05
   CH3COOH         3.030e-19   3.030e-19   -18.519   -18.519     0.000     54.04
   SCN-            2.435e-19   1.598e-19   -18.614   -18.796    -0.183     35.94
   CH2O            2.546e-22   2.546e-22   -21.594   -21.594     0.000     28.99
   CN-             6.087e-24   3.890e-24   -23.216   -23.410    -0.194     24.36
   HCN             1.979e-24   1.979e-24   -23.704   -23.704     0.000     46.68
   NH4(CH3COO)2-   2.383e-31   1.602e-31   -30.623   -30.795    -0.172    124.14
Cl(-1)        1.467e-02
   Cl-             1.467e-02   9.373e-03    -1.834    -2.028    -0.194     17.66
   HCl             2.238e-11   2.238e-11   -10.650   -10.650     0.000      1.69
Cl(1)         0.000e+00
   ClO-            0.000e+00   0.000e+00   -48.388   -48.560    -0.172      1.85
Cl(3)         0.000e+00
   ClO2-           0.000e+00   0.000e+00   -88.638   -88.810    -0.172     22.67
Cl(5)         0.000e+00
   ClO3-           0.000e+00   0.000e+00  -117.736  -117.919    -0.183     37.19
Cl(7)         0.000e+00
   ClO4-           0.000e+00   0.000e+00  -150.688  -150.870    -0.183     46.15
H(0)          4.613e-03
   H2              2.306e-03   2.481e-03    -2.637    -2.605     0.032     27.00
N(-3)         1.110e+00
   NH3             8.207e-01   8.207e-01    -0.086    -0.086     0.000     25.13
   NH4+            2.893e-01   1.794e-01    -0.539    -0.746    -0.208     19.46
   NH4CH3COO       3.419e-16   3.419e-16   -15.466   -15.466     0.000     69.31
   CO(NH2)2        1.054e-16   1.054e-16   -15.977   -15.977     0.000     43.36
   SCN-            2.435e-19   1.598e-19   -18.614   -18.796    -0.183     35.94
   CN-             6.087e-24   3.890e-24   -23.216   -23.410    -0.194     24.36
   HCN             1.979e-24   1.979e-24   -23.704   -23.704     0.000     46.68
   NH4(CH3COO)2-   2.383e-31   1.602e-31   -30.623   -30.795    -0.172    124.14
N(0)          1.213e-09
   N2              6.065e-10   6.065e-10    -9.217    -9.217     0.000     34.97
N(3)          0.000e+00
   NO2-            0.000e+00   0.000e+00   -56.786   -56.980    -0.194     25.57
   HNO2            0.000e+00   0.000e+00   -62.394   -62.394     0.000     32.18
N(5)          0.000e+00
   NO3-            0.000e+00   0.000e+00   -78.760   -78.955    -0.194     31.97
   HNO3            0.000e+00   0.000e+00   -87.703   -87.703     0.000     41.52
O(0)         -1.522e-13
   HCOO-           1.025e-13   6.726e-14   -12.989   -13.172    -0.183     25.64
   CH3OH           1.408e-14   1.408e-14   -13.851   -13.851     0.000     37.38
   CH3COO-         8.911e-16   6.121e-16   -15.050   -15.213    -0.163     38.90
   NH4CH3COO       3.419e-16   3.419e-16   -15.466   -15.466     0.000     69.31
   C3H8            2.558e-16   2.558e-16   -15.592   -15.592     0.000     65.43
   HCOOH           3.437e-18   3.437e-18   -17.464   -17.464     0.000     36.21
   CH3CH2OH        3.823e-19   3.823e-19   -18.418   -18.418     0.000     53.05
   CH3COOH         3.030e-19   3.030e-19   -18.519   -18.519     0.000     54.04
   CH2O            2.546e-22   2.546e-22   -21.594   -21.594     0.000     28.99
   CN-             6.087e-24   3.890e-24   -23.216   -23.410    -0.194     24.36
   HCN             1.979e-24   1.979e-24   -23.704   -23.704     0.000     46.68
   NH4(CH3COO)2-   2.383e-31   1.602e-31   -30.623   -30.795    -0.172    124.14
   S2O6-2          0.000e+00   0.000e+00   -60.842   -61.571    -0.730     40.58
   S4O6-2          0.000e+00   0.000e+00   -63.001   -63.731    -0.730     56.73
   O2              0.000e+00   0.000e+00   -67.667   -67.635     0.032     32.25
   S3O6-2          0.000e+00   0.000e+00   -68.821   -69.551    -0.730     42.08
   S5O6-2          0.000e+00   0.000e+00   -82.394   -83.124    -0.730     45.69
S(-2)         2.775e-01
   HS-             2.745e-01   1.802e-01    -0.561    -0.744    -0.183     21.06
   H2S             3.051e-03   3.051e-03    -2.516    -2.516     0.000     36.41
   S2-2            1.291e-09   2.406e-10    -8.889    -9.619    -0.730     20.69
   S3-2            2.146e-15   3.999e-16   -14.668   -15.398    -0.730     29.52
   SCN-            2.435e-19   1.598e-19   -18.614   -18.796    -0.183     35.94
   S4-2            2.433e-21   4.534e-22   -20.614   -21.344    -0.730     38.25
   S5-2            1.812e-27   3.376e-28   -26.742   -27.472    -0.730     46.98
S(2)          2.480e-24
   S2O3-2          1.240e-24   2.310e-25   -23.907   -24.636    -0.730     30.99
S(3)          0.000e+00
   S2O4-2          0.000e+00   0.000e+00   -46.266   -46.925    -0.658     29.28
S(4)          1.526e-23
   SO3-2           1.415e-23   2.874e-24   -22.849   -23.541    -0.692     -1.96
   HSO3-           1.105e-24   7.426e-25   -23.957   -24.129    -0.172     36.15
   SO2             2.277e-30   2.277e-30   -29.643   -29.643     0.000     39.06
   S2O6-2          0.000e+00   0.000e+00   -60.842   -61.571    -0.730     40.58
   S4O6-2          0.000e+00   0.000e+00   -63.001   -63.731    -0.730     56.73
   S3O6-2          0.000e+00   0.000e+00   -68.821   -69.551    -0.730     42.08
   S5O6-2          0.000e+00   0.000e+00   -82.394   -83.124    -0.730     45.69
S(5)          0.000e+00
   S2O5-2          0.000e+00   0.000e+00   -52.408   -53.138    -0.730     34.23
S(6)          2.916e-20
   SO4-2           2.916e-20   5.435e-21   -19.535   -20.265    -0.730     17.49
   HSO4-           3.846e-26   2.586e-26   -25.415   -25.587    -0.172     40.41
S(7)          0.000e+00
   S2O8-2          0.000e+00   0.000e+00  -105.469  -106.198    -0.730     78.21
S(8)          0.000e+00
   HSO5-           0.000e+00   0.000e+00   -74.260   -74.432    -0.172     50.30

------------------------------Saturation indices-------------------------------

  Phase               SI** log IAP   log K(373 K, 600 atm)

  [(6)(CB)(CB)S]  -13.23     37.99   51.22  S
  [(aro)-O-(aro)] -17.35    -33.82  -16.46  O
  C                -3.86     46.38   50.24  C
  C2H4(g)         -16.03    -19.09   -3.06  C2H4
  C2H6(g)          -4.92     -8.63   -3.71  C2H6
  C3H8(g)         -11.86    -15.59   -3.73  C3H8
  CH4(g)            3.84      0.44   -3.39  CH4
  CO(g)           -15.80    -19.25   -3.45  CO
  CO2(g)          -12.84    -21.26   -8.42  CO2
  H2(g)             0.72     -2.61   -3.33  H2
  H2O(g)            0.04     -0.03   -0.08  H2O
  H2S(g)           -0.73     -8.85   -8.12  H2S
  Ice              -0.51     -0.03    0.48  H2O
  KerogenC128    -1064.24   7636.00 8700.24  C128H68O7
  KerogenC292    -1695.67  19798.4721494.14  C292H288O12
  KerogenC515    -4338.81  34686.8939025.70  C515H596O72
  N2(g)            -5.58     -9.22   -3.64  N2
  NH3(g)           -0.47     -0.09    0.39  NH3
  NH4Cl            -4.98     -2.77    2.21  NH4Cl
  NH4HCO3         -13.80    -13.92   -0.13  NH4HCO3
  NO(g)           -45.38    -48.17   -2.78  NO
  NO2(g)          -71.10    -70.14    0.96  NO2
  O2(g)           -64.25    -67.64   -3.39  O2
  Pyridine        -54.79    342.51  397.30  C5H5N
  S                -6.71    -42.64  -35.93  S
  SO2(g)          -28.70    -29.64   -0.94  SO2

**For a gas, SI = log10(fugacity). Fugacity = pressure * phi / 1 atm.
  For ideal gases, phi = 1.

------------------
End of simulation.
------------------

------------------------------------
Reading input data for simulation 2.
------------------------------------

----------------------------------
End of Run after 0.059164 Seconds.
----------------------------------

